2357, 'GENSAL', 1,   6.00000,     0.350000E-01, 0.350000E-01,  10.00000,    3.00000,      1.40000,      1.00000,     0.210000,     0.180000,     0.120000,     0.170000,     0.550000     /
2357, 'ESST1A', 1,   1, 1, 0.0,  999.000,     -999.000,     0.510000,      2.01000,      0.00000,      0.00000,      178.900, 0.290000E-01,  999.000,     -999.000,      4.48000,     -1.79000,     0.110000,      0.00000,      1.00000,      0.00000,      2.80000 /
2357, 'WSIEG1', 1 ,      0, 0 ,  25.0000 ,     0.00000 ,     3.30000 ,    0.300000 ,    0.250000 ,    -3.30000  ,    1.01000 ,     0.00000 ,    0.861200E-01 , 1.00000, 
0.00000 ,     0.00000  ,    0.00000   ,   0.00000  ,    0.00000 ,     0.00000  ,    0.00000  ,    0.00000   ,   0.00000  ,    0.00000  ,  
0.00000 ,     0.00000  ,    0.00000   ,   0.00000  ,    0.00000 ,     0.00000  ,   0.00000  ,    0.00000   ,   0.00000  ,    0.00000  ,  
0.00000 ,     0.00000  ,    0.00000  ,   0 / 

809, 'GENSAL', 1,   6.00000,     0.350000E-01, 0.350000E-01,  10.00000,    3.00000,      1.40000,      1.00000,     0.210000,     0.180000,     0.120000,     0.170000,     0.550000     /
809, 'ESST1A', 1,   1, 1, 0.0,  999.000,     -999.000,     0.510000,      2.01000,      0.00000,      0.00000,      178.900, 0.290000E-01,  999.000,     -999.000,      4.48000,     -1.79000,     0.110000,      0.00000,      1.00000,      0.00000,      2.80000 /
809, 'WSIEG1', 1 ,      0, 0 ,  25.0000 ,     0.00000 ,     3.30000 ,    0.300000 ,    0.250000 ,    -3.30000  ,    1.01000 ,     0.00000 ,    0.861200E-01 , 1.00000, 
0.00000 ,     0.00000  ,    0.00000   ,   0.00000  ,    0.00000 ,     0.00000  ,    0.00000  ,    0.00000   ,   0.00000  ,    0.00000  ,  
0.00000 ,     0.00000  ,    0.00000   ,   0.00000  ,    0.00000 ,     0.00000  ,   0.00000  ,    0.00000   ,   0.00000  ,    0.00000  ,  
0.00000 ,     0.00000  ,    0.00000  ,   0 / 

2267, 'GENSAL', 1,   6.00000,     0.350000E-01, 0.350000E-01,  10.00000,    3.00000,      1.40000,      1.00000,     0.210000,     0.180000,     0.120000,     0.170000,     0.550000     /
2267, 'ESST1A', 1,   1, 1, 0.0,  999.000,     -999.000,     0.510000,      2.01000,      0.00000,      0.00000,      178.900, 0.290000E-01,  999.000,     -999.000,      4.48000,     -1.79000,     0.110000,      0.00000,      1.00000,      0.00000,      2.80000 /
2267, 'WSIEG1', 1 ,      0, 0 ,  25.0000 ,     0.00000 ,     3.30000 ,    0.300000 ,    0.250000 ,    -3.30000  ,    1.01000 ,     0.00000 ,    0.861200E-01 , 1.00000, 
0.00000 ,     0.00000  ,    0.00000   ,   0.00000  ,    0.00000 ,     0.00000  ,    0.00000  ,    0.00000   ,   0.00000  ,    0.00000  ,  
0.00000 ,     0.00000  ,    0.00000   ,   0.00000  ,    0.00000 ,     0.00000  ,   0.00000  ,    0.00000   ,   0.00000  ,    0.00000  ,  
0.00000 ,     0.00000  ,    0.00000  ,   0 / 

2691, 'GENSAL', 1,   6.00000,     0.350000E-01, 0.350000E-01,  10.00000,    3.00000,      1.40000,      1.00000,     0.210000,     0.180000,     0.120000,     0.170000,     0.550000     /
2691, 'ESST1A', 1,   1, 1, 0.0,  999.000,     -999.000,     0.510000,      2.01000,      0.00000,      0.00000,      178.900, 0.290000E-01,  999.000,     -999.000,      4.48000,     -1.79000,     0.110000,      0.00000,      1.00000,      0.00000,      2.80000 /
2691, 'WSIEG1', 1 ,      0, 0 ,  25.0000 ,     0.00000 ,     3.30000 ,    0.300000 ,    0.250000 ,    -3.30000  ,    1.01000 ,     0.00000 ,    0.861200E-01 , 1.00000, 
0.00000 ,     0.00000  ,    0.00000   ,   0.00000  ,    0.00000 ,     0.00000  ,    0.00000  ,    0.00000   ,   0.00000  ,    0.00000  ,  
0.00000 ,     0.00000  ,    0.00000   ,   0.00000  ,    0.00000 ,     0.00000  ,   0.00000  ,    0.00000   ,   0.00000  ,    0.00000  ,  
0.00000 ,     0.00000  ,    0.00000  ,   0 / 

2585, 'GENSAL', 1,   6.00000,     0.350000E-01, 0.350000E-01,  10.00000,    3.00000,      1.40000,      1.00000,     0.210000,     0.180000,     0.120000,     0.170000,     0.550000     /
2585, 'ESST1A', 1,   1, 1, 0.0,  999.000,     -999.000,     0.510000,      2.01000,      0.00000,      0.00000,      178.900, 0.290000E-01,  999.000,     -999.000,      4.48000,     -1.79000,     0.110000,      0.00000,      1.00000,      0.00000,      2.80000 /
2585, 'WSIEG1', 1 ,      0, 0 ,  25.0000 ,     0.00000 ,     3.30000 ,    0.300000 ,    0.250000 ,    -3.30000  ,    1.01000 ,     0.00000 ,    0.861200E-01 , 1.00000, 
0.00000 ,     0.00000  ,    0.00000   ,   0.00000  ,    0.00000 ,     0.00000  ,    0.00000  ,    0.00000   ,   0.00000  ,    0.00000  ,  
0.00000 ,     0.00000  ,    0.00000   ,   0.00000  ,    0.00000 ,     0.00000  ,   0.00000  ,    0.00000   ,   0.00000  ,    0.00000  ,  
0.00000 ,     0.00000  ,    0.00000  ,   0 / 

2619, 'GENSAL', 1,   6.00000,     0.350000E-01, 0.350000E-01,  10.00000,    3.00000,      1.40000,      1.00000,     0.210000,     0.180000,     0.120000,     0.170000,     0.550000     /
2619, 'ESST1A', 1,   1, 1, 0.0,  999.000,     -999.000,     0.510000,      2.01000,      0.00000,      0.00000,      178.900, 0.290000E-01,  999.000,     -999.000,      4.48000,     -1.79000,     0.110000,      0.00000,      1.00000,      0.00000,      2.80000 /
2619, 'WSIEG1', 1 ,      0, 0 ,  25.0000 ,     0.00000 ,     3.30000 ,    0.300000 ,    0.250000 ,    -3.30000  ,    1.01000 ,     0.00000 ,    0.861200E-01 , 1.00000, 
0.00000 ,     0.00000  ,    0.00000   ,   0.00000  ,    0.00000 ,     0.00000  ,    0.00000  ,    0.00000   ,   0.00000  ,    0.00000  ,  
0.00000 ,     0.00000  ,    0.00000   ,   0.00000  ,    0.00000 ,     0.00000  ,   0.00000  ,    0.00000   ,   0.00000  ,    0.00000  ,  
0.00000 ,     0.00000  ,    0.00000  ,   0 / 

2390, 'GENSAL', 1,   6.00000,     0.350000E-01, 0.350000E-01,  10.00000,    3.00000,      1.40000,      1.00000,     0.210000,     0.180000,     0.120000,     0.170000,     0.550000     /
2390, 'ESST1A', 1,   1, 1, 0.0,  999.000,     -999.000,     0.510000,      2.01000,      0.00000,      0.00000,      178.900, 0.290000E-01,  999.000,     -999.000,      4.48000,     -1.79000,     0.110000,      0.00000,      1.00000,      0.00000,      2.80000 /
2390, 'WSIEG1', 1 ,      0, 0 ,  25.0000 ,     0.00000 ,     3.30000 ,    0.300000 ,    0.250000 ,    -3.30000  ,    1.01000 ,     0.00000 ,    0.861200E-01 , 1.00000, 
0.00000 ,     0.00000  ,    0.00000   ,   0.00000  ,    0.00000 ,     0.00000  ,    0.00000  ,    0.00000   ,   0.00000  ,    0.00000  ,  
0.00000 ,     0.00000  ,    0.00000   ,   0.00000  ,    0.00000 ,     0.00000  ,   0.00000  ,    0.00000   ,   0.00000  ,    0.00000  ,  
0.00000 ,     0.00000  ,    0.00000  ,   0 / 

2322, 'GENSAL', 1,   6.00000,     0.350000E-01, 0.350000E-01,  10.00000,    3.00000,      1.40000,      1.00000,     0.210000,     0.180000,     0.120000,     0.170000,     0.550000     /
2322, 'ESST1A', 1,   1, 1, 0.0,  999.000,     -999.000,     0.510000,      2.01000,      0.00000,      0.00000,      178.900, 0.290000E-01,  999.000,     -999.000,      4.48000,     -1.79000,     0.110000,      0.00000,      1.00000,      0.00000,      2.80000 /
2322, 'WSIEG1', 1 ,      0, 0 ,  25.0000 ,     0.00000 ,     3.30000 ,    0.300000 ,    0.250000 ,    -3.30000  ,    1.01000 ,     0.00000 ,    0.861200E-01 , 1.00000, 
0.00000 ,     0.00000  ,    0.00000   ,   0.00000  ,    0.00000 ,     0.00000  ,    0.00000  ,    0.00000   ,   0.00000  ,    0.00000  ,  
0.00000 ,     0.00000  ,    0.00000   ,   0.00000  ,    0.00000 ,     0.00000  ,   0.00000  ,    0.00000   ,   0.00000  ,    0.00000  ,  
0.00000 ,     0.00000  ,    0.00000  ,   0 / 

2349, 'GENSAL', 1,   6.00000,     0.350000E-01, 0.350000E-01,  10.00000,    3.00000,      1.40000,      1.00000,     0.210000,     0.180000,     0.120000,     0.170000,     0.550000     /
2349, 'ESST1A', 1,   1, 1, 0.0,  999.000,     -999.000,     0.510000,      2.01000,      0.00000,      0.00000,      178.900, 0.290000E-01,  999.000,     -999.000,      4.48000,     -1.79000,     0.110000,      0.00000,      1.00000,      0.00000,      2.80000 /
2349, 'WSIEG1', 1 ,      0, 0 ,  25.0000 ,     0.00000 ,     3.30000 ,    0.300000 ,    0.250000 ,    -3.30000  ,    1.01000 ,     0.00000 ,    0.861200E-01 , 1.00000, 
0.00000 ,     0.00000  ,    0.00000   ,   0.00000  ,    0.00000 ,     0.00000  ,    0.00000  ,    0.00000   ,   0.00000  ,    0.00000  ,  
0.00000 ,     0.00000  ,    0.00000   ,   0.00000  ,    0.00000 ,     0.00000  ,   0.00000  ,    0.00000   ,   0.00000  ,    0.00000  ,  
0.00000 ,     0.00000  ,    0.00000  ,   0 / 

2600, 'GENSAL', 1,   6.00000,     0.350000E-01, 0.350000E-01,  10.00000,    3.00000,      1.40000,      1.00000,     0.210000,     0.180000,     0.120000,     0.170000,     0.550000     /
2600, 'ESST1A', 1,   1, 1, 0.0,  999.000,     -999.000,     0.510000,      2.01000,      0.00000,      0.00000,      178.900, 0.290000E-01,  999.000,     -999.000,      4.48000,     -1.79000,     0.110000,      0.00000,      1.00000,      0.00000,      2.80000 /
2600, 'WSIEG1', 1 ,      0, 0 ,  25.0000 ,     0.00000 ,     3.30000 ,    0.300000 ,    0.250000 ,    -3.30000  ,    1.01000 ,     0.00000 ,    0.861200E-01 , 1.00000, 
0.00000 ,     0.00000  ,    0.00000   ,   0.00000  ,    0.00000 ,     0.00000  ,    0.00000  ,    0.00000   ,   0.00000  ,    0.00000  ,  
0.00000 ,     0.00000  ,    0.00000   ,   0.00000  ,    0.00000 ,     0.00000  ,   0.00000  ,    0.00000   ,   0.00000  ,    0.00000  ,  
0.00000 ,     0.00000  ,    0.00000  ,   0 / 

2627, 'GENSAL', 1,   6.00000,     0.350000E-01, 0.350000E-01,  10.00000,    3.00000,      1.40000,      1.00000,     0.210000,     0.180000,     0.120000,     0.170000,     0.550000     /
2627, 'ESST1A', 1,   1, 1, 0.0,  999.000,     -999.000,     0.510000,      2.01000,      0.00000,      0.00000,      178.900, 0.290000E-01,  999.000,     -999.000,      4.48000,     -1.79000,     0.110000,      0.00000,      1.00000,      0.00000,      2.80000 /
2627, 'WSIEG1', 1 ,      0, 0 ,  25.0000 ,     0.00000 ,     3.30000 ,    0.300000 ,    0.250000 ,    -3.30000  ,    1.01000 ,     0.00000 ,    0.861200E-01 , 1.00000, 
0.00000 ,     0.00000  ,    0.00000   ,   0.00000  ,    0.00000 ,     0.00000  ,    0.00000  ,    0.00000   ,   0.00000  ,    0.00000  ,  
0.00000 ,     0.00000  ,    0.00000   ,   0.00000  ,    0.00000 ,     0.00000  ,   0.00000  ,    0.00000   ,   0.00000  ,    0.00000  ,  
0.00000 ,     0.00000  ,    0.00000  ,   0 / 

2644, 'GENSAL', 1,   6.00000,     0.350000E-01, 0.350000E-01,  10.00000,    3.00000,      1.40000,      1.00000,     0.210000,     0.180000,     0.120000,     0.170000,     0.550000     /
2644, 'ESST1A', 1,   1, 1, 0.0,  999.000,     -999.000,     0.510000,      2.01000,      0.00000,      0.00000,      178.900, 0.290000E-01,  999.000,     -999.000,      4.48000,     -1.79000,     0.110000,      0.00000,      1.00000,      0.00000,      2.80000 /
2644, 'WSIEG1', 1 ,      0, 0 ,  25.0000 ,     0.00000 ,     3.30000 ,    0.300000 ,    0.250000 ,    -3.30000  ,    1.01000 ,     0.00000 ,    0.861200E-01 , 1.00000, 
0.00000 ,     0.00000  ,    0.00000   ,   0.00000  ,    0.00000 ,     0.00000  ,    0.00000  ,    0.00000   ,   0.00000  ,    0.00000  ,  
0.00000 ,     0.00000  ,    0.00000   ,   0.00000  ,    0.00000 ,     0.00000  ,   0.00000  ,    0.00000   ,   0.00000  ,    0.00000  ,  
0.00000 ,     0.00000  ,    0.00000  ,   0 / 

2685, 'GENSAL', 1,   6.00000,     0.350000E-01, 0.350000E-01,  10.00000,    3.00000,      1.40000,      1.00000,     0.210000,     0.180000,     0.120000,     0.170000,     0.550000     /
2685, 'ESST1A', 1,   1, 1, 0.0,  999.000,     -999.000,     0.510000,      2.01000,      0.00000,      0.00000,      178.900, 0.290000E-01,  999.000,     -999.000,      4.48000,     -1.79000,     0.110000,      0.00000,      1.00000,      0.00000,      2.80000 /
2685, 'WSIEG1', 1 ,      0, 0 ,  25.0000 ,     0.00000 ,     3.30000 ,    0.300000 ,    0.250000 ,    -3.30000  ,    1.01000 ,     0.00000 ,    0.861200E-01 , 1.00000, 
0.00000 ,     0.00000  ,    0.00000   ,   0.00000  ,    0.00000 ,     0.00000  ,    0.00000  ,    0.00000   ,   0.00000  ,    0.00000  ,  
0.00000 ,     0.00000  ,    0.00000   ,   0.00000  ,    0.00000 ,     0.00000  ,   0.00000  ,    0.00000   ,   0.00000  ,    0.00000  ,  
0.00000 ,     0.00000  ,    0.00000  ,   0 / 

302, 'GENSAL', 1,   6.00000,     0.350000E-01, 0.350000E-01,  10.00000,    3.00000,      1.40000,      1.00000,     0.210000,     0.180000,     0.120000,     0.170000,     0.550000     /
302, 'ESST1A', 1,   1, 1, 0.0,  999.000,     -999.000,     0.510000,      2.01000,      0.00000,      0.00000,      178.900, 0.290000E-01,  999.000,     -999.000,      4.48000,     -1.79000,     0.110000,      0.00000,      1.00000,      0.00000,      2.80000 /
302, 'WSIEG1', 1 ,      0, 0 ,  25.0000 ,     0.00000 ,     3.30000 ,    0.300000 ,    0.250000 ,    -3.30000  ,    1.01000 ,     0.00000 ,    0.861200E-01 , 1.00000, 
0.00000 ,     0.00000  ,    0.00000   ,   0.00000  ,    0.00000 ,     0.00000  ,    0.00000  ,    0.00000   ,   0.00000  ,    0.00000  ,  
0.00000 ,     0.00000  ,    0.00000   ,   0.00000  ,    0.00000 ,     0.00000  ,   0.00000  ,    0.00000   ,   0.00000  ,    0.00000  ,  
0.00000 ,     0.00000  ,    0.00000  ,   0 / 

2524, 'GENSAL', 1,   6.00000,     0.350000E-01, 0.350000E-01,  10.00000,    3.00000,      1.40000,      1.00000,     0.210000,     0.180000,     0.120000,     0.170000,     0.550000     /
2524, 'ESST1A', 1,   1, 1, 0.0,  999.000,     -999.000,     0.510000,      2.01000,      0.00000,      0.00000,      178.900, 0.290000E-01,  999.000,     -999.000,      4.48000,     -1.79000,     0.110000,      0.00000,      1.00000,      0.00000,      2.80000 /
2524, 'WSIEG1', 1 ,      0, 0 ,  25.0000 ,     0.00000 ,     3.30000 ,    0.300000 ,    0.250000 ,    -3.30000  ,    1.01000 ,     0.00000 ,    0.861200E-01 , 1.00000, 
0.00000 ,     0.00000  ,    0.00000   ,   0.00000  ,    0.00000 ,     0.00000  ,    0.00000  ,    0.00000   ,   0.00000  ,    0.00000  ,  
0.00000 ,     0.00000  ,    0.00000   ,   0.00000  ,    0.00000 ,     0.00000  ,   0.00000  ,    0.00000   ,   0.00000  ,    0.00000  ,  
0.00000 ,     0.00000  ,    0.00000  ,   0 / 

3048, 'GENSAL', 1,   6.00000,     0.350000E-01, 0.350000E-01,  10.00000,    3.00000,      1.40000,      1.00000,     0.210000,     0.180000,     0.120000,     0.170000,     0.550000     /
3048, 'ESST1A', 1,   1, 1, 0.0,  999.000,     -999.000,     0.510000,      2.01000,      0.00000,      0.00000,      178.900, 0.290000E-01,  999.000,     -999.000,      4.48000,     -1.79000,     0.110000,      0.00000,      1.00000,      0.00000,      2.80000 /
3048, 'WSIEG1', 1 ,      0, 0 ,  25.0000 ,     0.00000 ,     3.30000 ,    0.300000 ,    0.250000 ,    -3.30000  ,    1.01000 ,     0.00000 ,    0.861200E-01 , 1.00000, 
0.00000 ,     0.00000  ,    0.00000   ,   0.00000  ,    0.00000 ,     0.00000  ,    0.00000  ,    0.00000   ,   0.00000  ,    0.00000  ,  
0.00000 ,     0.00000  ,    0.00000   ,   0.00000  ,    0.00000 ,     0.00000  ,   0.00000  ,    0.00000   ,   0.00000  ,    0.00000  ,  
0.00000 ,     0.00000  ,    0.00000  ,   0 / 

2408, 'GENSAL', 1,   6.00000,     0.350000E-01, 0.350000E-01,  10.00000,    3.00000,      1.40000,      1.00000,     0.210000,     0.180000,     0.120000,     0.170000,     0.550000     /
2408, 'ESST1A', 1,   1, 1, 0.0,  999.000,     -999.000,     0.510000,      2.01000,      0.00000,      0.00000,      178.900, 0.290000E-01,  999.000,     -999.000,      4.48000,     -1.79000,     0.110000,      0.00000,      1.00000,      0.00000,      2.80000 /
2408, 'WSIEG1', 1 ,      0, 0 ,  25.0000 ,     0.00000 ,     3.30000 ,    0.300000 ,    0.250000 ,    -3.30000  ,    1.01000 ,     0.00000 ,    0.861200E-01 , 1.00000, 
0.00000 ,     0.00000  ,    0.00000   ,   0.00000  ,    0.00000 ,     0.00000  ,    0.00000  ,    0.00000   ,   0.00000  ,    0.00000  ,  
0.00000 ,     0.00000  ,    0.00000   ,   0.00000  ,    0.00000 ,     0.00000  ,   0.00000  ,    0.00000   ,   0.00000  ,    0.00000  ,  
0.00000 ,     0.00000  ,    0.00000  ,   0 / 

3065, 'GENSAL', 1,   6.00000,     0.350000E-01, 0.350000E-01,  10.00000,    3.00000,      1.40000,      1.00000,     0.210000,     0.180000,     0.120000,     0.170000,     0.550000     /
3065, 'ESST1A', 1,   1, 1, 0.0,  999.000,     -999.000,     0.510000,      2.01000,      0.00000,      0.00000,      178.900, 0.290000E-01,  999.000,     -999.000,      4.48000,     -1.79000,     0.110000,      0.00000,      1.00000,      0.00000,      2.80000 /
3065, 'WSIEG1', 1 ,      0, 0 ,  25.0000 ,     0.00000 ,     3.30000 ,    0.300000 ,    0.250000 ,    -3.30000  ,    1.01000 ,     0.00000 ,    0.861200E-01 , 1.00000, 
0.00000 ,     0.00000  ,    0.00000   ,   0.00000  ,    0.00000 ,     0.00000  ,    0.00000  ,    0.00000   ,   0.00000  ,    0.00000  ,  
0.00000 ,     0.00000  ,    0.00000   ,   0.00000  ,    0.00000 ,     0.00000  ,   0.00000  ,    0.00000   ,   0.00000  ,    0.00000  ,  
0.00000 ,     0.00000  ,    0.00000  ,   0 / 

3086, 'GENSAL', 1,   6.00000,     0.350000E-01, 0.350000E-01,  10.00000,    3.00000,      1.40000,      1.00000,     0.210000,     0.180000,     0.120000,     0.170000,     0.550000     /
3086, 'ESST1A', 1,   1, 1, 0.0,  999.000,     -999.000,     0.510000,      2.01000,      0.00000,      0.00000,      178.900, 0.290000E-01,  999.000,     -999.000,      4.48000,     -1.79000,     0.110000,      0.00000,      1.00000,      0.00000,      2.80000 /
3086, 'WSIEG1', 1 ,      0, 0 ,  25.0000 ,     0.00000 ,     3.30000 ,    0.300000 ,    0.250000 ,    -3.30000  ,    1.01000 ,     0.00000 ,    0.861200E-01 , 1.00000, 
0.00000 ,     0.00000  ,    0.00000   ,   0.00000  ,    0.00000 ,     0.00000  ,    0.00000  ,    0.00000   ,   0.00000  ,    0.00000  ,  
0.00000 ,     0.00000  ,    0.00000   ,   0.00000  ,    0.00000 ,     0.00000  ,   0.00000  ,    0.00000   ,   0.00000  ,    0.00000  ,  
0.00000 ,     0.00000  ,    0.00000  ,   0 / 

3087, 'GENSAL', 1,   6.00000,     0.350000E-01, 0.350000E-01,  10.00000,    3.00000,      1.40000,      1.00000,     0.210000,     0.180000,     0.120000,     0.170000,     0.550000     /
3087, 'ESST1A', 1,   1, 1, 0.0,  999.000,     -999.000,     0.510000,      2.01000,      0.00000,      0.00000,      178.900, 0.290000E-01,  999.000,     -999.000,      4.48000,     -1.79000,     0.110000,      0.00000,      1.00000,      0.00000,      2.80000 /
3087, 'WSIEG1', 1 ,      0, 0 ,  25.0000 ,     0.00000 ,     3.30000 ,    0.300000 ,    0.250000 ,    -3.30000  ,    1.01000 ,     0.00000 ,    0.861200E-01 , 1.00000, 
0.00000 ,     0.00000  ,    0.00000   ,   0.00000  ,    0.00000 ,     0.00000  ,    0.00000  ,    0.00000   ,   0.00000  ,    0.00000  ,  
0.00000 ,     0.00000  ,    0.00000   ,   0.00000  ,    0.00000 ,     0.00000  ,   0.00000  ,    0.00000   ,   0.00000  ,    0.00000  ,  
0.00000 ,     0.00000  ,    0.00000  ,   0 / 

587, 'GENSAL', 1,   6.00000,     0.350000E-01, 0.350000E-01,  10.00000,    3.00000,      1.40000,      1.00000,     0.210000,     0.180000,     0.120000,     0.170000,     0.550000     /
587, 'ESST1A', 1,   1, 1, 0.0,  999.000,     -999.000,     0.510000,      2.01000,      0.00000,      0.00000,      178.900, 0.290000E-01,  999.000,     -999.000,      4.48000,     -1.79000,     0.110000,      0.00000,      1.00000,      0.00000,      2.80000 /
587, 'WSIEG1', 1 ,      0, 0 ,  25.0000 ,     0.00000 ,     3.30000 ,    0.300000 ,    0.250000 ,    -3.30000  ,    1.01000 ,     0.00000 ,    0.861200E-01 , 1.00000, 
0.00000 ,     0.00000  ,    0.00000   ,   0.00000  ,    0.00000 ,     0.00000  ,    0.00000  ,    0.00000   ,   0.00000  ,    0.00000  ,  
0.00000 ,     0.00000  ,    0.00000   ,   0.00000  ,    0.00000 ,     0.00000  ,   0.00000  ,    0.00000   ,   0.00000  ,    0.00000  ,  
0.00000 ,     0.00000  ,    0.00000  ,   0 / 

2345, 'GENSAL', 1,   6.00000,     0.350000E-01, 0.350000E-01,  10.00000,    3.00000,      1.40000,      1.00000,     0.210000,     0.180000,     0.120000,     0.170000,     0.550000     /
2345, 'ESST1A', 1,   1, 1, 0.0,  999.000,     -999.000,     0.510000,      2.01000,      0.00000,      0.00000,      178.900, 0.290000E-01,  999.000,     -999.000,      4.48000,     -1.79000,     0.110000,      0.00000,      1.00000,      0.00000,      2.80000 /
2345, 'WSIEG1', 1 ,      0, 0 ,  25.0000 ,     0.00000 ,     3.30000 ,    0.300000 ,    0.250000 ,    -3.30000  ,    1.01000 ,     0.00000 ,    0.861200E-01 , 1.00000, 
0.00000 ,     0.00000  ,    0.00000   ,   0.00000  ,    0.00000 ,     0.00000  ,    0.00000  ,    0.00000   ,   0.00000  ,    0.00000  ,  
0.00000 ,     0.00000  ,    0.00000   ,   0.00000  ,    0.00000 ,     0.00000  ,   0.00000  ,    0.00000   ,   0.00000  ,    0.00000  ,  
0.00000 ,     0.00000  ,    0.00000  ,   0 / 

2842, 'GENSAL', 1,   6.00000,     0.350000E-01, 0.350000E-01,  10.00000,    3.00000,      1.40000,      1.00000,     0.210000,     0.180000,     0.120000,     0.170000,     0.550000     /
2842, 'ESST1A', 1,   1, 1, 0.0,  999.000,     -999.000,     0.510000,      2.01000,      0.00000,      0.00000,      178.900, 0.290000E-01,  999.000,     -999.000,      4.48000,     -1.79000,     0.110000,      0.00000,      1.00000,      0.00000,      2.80000 /
2842, 'WSIEG1', 1 ,      0, 0 ,  25.0000 ,     0.00000 ,     3.30000 ,    0.300000 ,    0.250000 ,    -3.30000  ,    1.01000 ,     0.00000 ,    0.861200E-01 , 1.00000, 
0.00000 ,     0.00000  ,    0.00000   ,   0.00000  ,    0.00000 ,     0.00000  ,    0.00000  ,    0.00000   ,   0.00000  ,    0.00000  ,  
0.00000 ,     0.00000  ,    0.00000   ,   0.00000  ,    0.00000 ,     0.00000  ,   0.00000  ,    0.00000   ,   0.00000  ,    0.00000  ,  
0.00000 ,     0.00000  ,    0.00000  ,   0 / 

2856, 'GENSAL', 1,   6.00000,     0.350000E-01, 0.350000E-01,  10.00000,    3.00000,      1.40000,      1.00000,     0.210000,     0.180000,     0.120000,     0.170000,     0.550000     /
2856, 'ESST1A', 1,   1, 1, 0.0,  999.000,     -999.000,     0.510000,      2.01000,      0.00000,      0.00000,      178.900, 0.290000E-01,  999.000,     -999.000,      4.48000,     -1.79000,     0.110000,      0.00000,      1.00000,      0.00000,      2.80000 /
2856, 'WSIEG1', 1 ,      0, 0 ,  25.0000 ,     0.00000 ,     3.30000 ,    0.300000 ,    0.250000 ,    -3.30000  ,    1.01000 ,     0.00000 ,    0.861200E-01 , 1.00000, 
0.00000 ,     0.00000  ,    0.00000   ,   0.00000  ,    0.00000 ,     0.00000  ,    0.00000  ,    0.00000   ,   0.00000  ,    0.00000  ,  
0.00000 ,     0.00000  ,    0.00000   ,   0.00000  ,    0.00000 ,     0.00000  ,   0.00000  ,    0.00000   ,   0.00000  ,    0.00000  ,  
0.00000 ,     0.00000  ,    0.00000  ,   0 / 

2857, 'GENSAL', 1,   6.00000,     0.350000E-01, 0.350000E-01,  10.00000,    3.00000,      1.40000,      1.00000,     0.210000,     0.180000,     0.120000,     0.170000,     0.550000     /
2857, 'ESST1A', 1,   1, 1, 0.0,  999.000,     -999.000,     0.510000,      2.01000,      0.00000,      0.00000,      178.900, 0.290000E-01,  999.000,     -999.000,      4.48000,     -1.79000,     0.110000,      0.00000,      1.00000,      0.00000,      2.80000 /
2857, 'WSIEG1', 1 ,      0, 0 ,  25.0000 ,     0.00000 ,     3.30000 ,    0.300000 ,    0.250000 ,    -3.30000  ,    1.01000 ,     0.00000 ,    0.861200E-01 , 1.00000, 
0.00000 ,     0.00000  ,    0.00000   ,   0.00000  ,    0.00000 ,     0.00000  ,    0.00000  ,    0.00000   ,   0.00000  ,    0.00000  ,  
0.00000 ,     0.00000  ,    0.00000   ,   0.00000  ,    0.00000 ,     0.00000  ,   0.00000  ,    0.00000   ,   0.00000  ,    0.00000  ,  
0.00000 ,     0.00000  ,    0.00000  ,   0 / 

3045, 'GENSAL', 1,   6.00000,     0.350000E-01, 0.350000E-01,  10.00000,    3.00000,      1.40000,      1.00000,     0.210000,     0.180000,     0.120000,     0.170000,     0.550000     /
3045, 'ESST1A', 1,   1, 1, 0.0,  999.000,     -999.000,     0.510000,      2.01000,      0.00000,      0.00000,      178.900, 0.290000E-01,  999.000,     -999.000,      4.48000,     -1.79000,     0.110000,      0.00000,      1.00000,      0.00000,      2.80000 /
3045, 'WSIEG1', 1 ,      0, 0 ,  25.0000 ,     0.00000 ,     3.30000 ,    0.300000 ,    0.250000 ,    -3.30000  ,    1.01000 ,     0.00000 ,    0.861200E-01 , 1.00000, 
0.00000 ,     0.00000  ,    0.00000   ,   0.00000  ,    0.00000 ,     0.00000  ,    0.00000  ,    0.00000   ,   0.00000  ,    0.00000  ,  
0.00000 ,     0.00000  ,    0.00000   ,   0.00000  ,    0.00000 ,     0.00000  ,   0.00000  ,    0.00000   ,   0.00000  ,    0.00000  ,  
0.00000 ,     0.00000  ,    0.00000  ,   0 / 

2934, 'GENSAL', 1,   6.00000,     0.350000E-01, 0.350000E-01,  10.00000,    3.00000,      1.40000,      1.00000,     0.210000,     0.180000,     0.120000,     0.170000,     0.550000     /
2934, 'ESST1A', 1,   1, 1, 0.0,  999.000,     -999.000,     0.510000,      2.01000,      0.00000,      0.00000,      178.900, 0.290000E-01,  999.000,     -999.000,      4.48000,     -1.79000,     0.110000,      0.00000,      1.00000,      0.00000,      2.80000 /
2934, 'WSIEG1', 1 ,      0, 0 ,  25.0000 ,     0.00000 ,     3.30000 ,    0.300000 ,    0.250000 ,    -3.30000  ,    1.01000 ,     0.00000 ,    0.861200E-01 , 1.00000, 
0.00000 ,     0.00000  ,    0.00000   ,   0.00000  ,    0.00000 ,     0.00000  ,    0.00000  ,    0.00000   ,   0.00000  ,    0.00000  ,  
0.00000 ,     0.00000  ,    0.00000   ,   0.00000  ,    0.00000 ,     0.00000  ,   0.00000  ,    0.00000   ,   0.00000  ,    0.00000  ,  
0.00000 ,     0.00000  ,    0.00000  ,   0 / 

1067, 'GENSAL', 1,   6.00000,     0.350000E-01, 0.350000E-01,  10.00000,    3.00000,      1.40000,      1.00000,     0.210000,     0.180000,     0.120000,     0.170000,     0.550000     /
1067, 'ESST1A', 1,   1, 1, 0.0,  999.000,     -999.000,     0.510000,      2.01000,      0.00000,      0.00000,      178.900, 0.290000E-01,  999.000,     -999.000,      4.48000,     -1.79000,     0.110000,      0.00000,      1.00000,      0.00000,      2.80000 /
1067, 'WSIEG1', 1 ,      0, 0 ,  25.0000 ,     0.00000 ,     3.30000 ,    0.300000 ,    0.250000 ,    -3.30000  ,    1.01000 ,     0.00000 ,    0.861200E-01 , 1.00000, 
0.00000 ,     0.00000  ,    0.00000   ,   0.00000  ,    0.00000 ,     0.00000  ,    0.00000  ,    0.00000   ,   0.00000  ,    0.00000  ,  
0.00000 ,     0.00000  ,    0.00000   ,   0.00000  ,    0.00000 ,     0.00000  ,   0.00000  ,    0.00000   ,   0.00000  ,    0.00000  ,  
0.00000 ,     0.00000  ,    0.00000  ,   0 / 

301, 'GENSAL', 1,   6.00000,     0.350000E-01, 0.350000E-01,  10.00000,    3.00000,      1.40000,      1.00000,     0.210000,     0.180000,     0.120000,     0.170000,     0.550000     /
301, 'ESST1A', 1,   1, 1, 0.0,  999.000,     -999.000,     0.510000,      2.01000,      0.00000,      0.00000,      178.900, 0.290000E-01,  999.000,     -999.000,      4.48000,     -1.79000,     0.110000,      0.00000,      1.00000,      0.00000,      2.80000 /
301, 'WSIEG1', 1 ,      0, 0 ,  25.0000 ,     0.00000 ,     3.30000 ,    0.300000 ,    0.250000 ,    -3.30000  ,    1.01000 ,     0.00000 ,    0.861200E-01 , 1.00000, 
0.00000 ,     0.00000  ,    0.00000   ,   0.00000  ,    0.00000 ,     0.00000  ,    0.00000  ,    0.00000   ,   0.00000  ,    0.00000  ,  
0.00000 ,     0.00000  ,    0.00000   ,   0.00000  ,    0.00000 ,     0.00000  ,   0.00000  ,    0.00000   ,   0.00000  ,    0.00000  ,  
0.00000 ,     0.00000  ,    0.00000  ,   0 / 

2324, 'GENSAL', 1,   6.00000,     0.350000E-01, 0.350000E-01,  10.00000,    3.00000,      1.40000,      1.00000,     0.210000,     0.180000,     0.120000,     0.170000,     0.550000     /
2324, 'ESST1A', 1,   1, 1, 0.0,  999.000,     -999.000,     0.510000,      2.01000,      0.00000,      0.00000,      178.900, 0.290000E-01,  999.000,     -999.000,      4.48000,     -1.79000,     0.110000,      0.00000,      1.00000,      0.00000,      2.80000 /
2324, 'WSIEG1', 1 ,      0, 0 ,  25.0000 ,     0.00000 ,     3.30000 ,    0.300000 ,    0.250000 ,    -3.30000  ,    1.01000 ,     0.00000 ,    0.861200E-01 , 1.00000, 
0.00000 ,     0.00000  ,    0.00000   ,   0.00000  ,    0.00000 ,     0.00000  ,    0.00000  ,    0.00000   ,   0.00000  ,    0.00000  ,  
0.00000 ,     0.00000  ,    0.00000   ,   0.00000  ,    0.00000 ,     0.00000  ,   0.00000  ,    0.00000   ,   0.00000  ,    0.00000  ,  
0.00000 ,     0.00000  ,    0.00000  ,   0 / 

1547, 'GENSAL', 1,   6.00000,     0.350000E-01, 0.350000E-01,  10.00000,    3.00000,      1.40000,      1.00000,     0.210000,     0.180000,     0.120000,     0.170000,     0.550000     /
1547, 'ESST1A', 1,   1, 1, 0.0,  999.000,     -999.000,     0.510000,      2.01000,      0.00000,      0.00000,      178.900, 0.290000E-01,  999.000,     -999.000,      4.48000,     -1.79000,     0.110000,      0.00000,      1.00000,      0.00000,      2.80000 /
1547, 'WSIEG1', 1 ,      0, 0 ,  25.0000 ,     0.00000 ,     3.30000 ,    0.300000 ,    0.250000 ,    -3.30000  ,    1.01000 ,     0.00000 ,    0.861200E-01 , 1.00000, 
0.00000 ,     0.00000  ,    0.00000   ,   0.00000  ,    0.00000 ,     0.00000  ,    0.00000  ,    0.00000   ,   0.00000  ,    0.00000  ,  
0.00000 ,     0.00000  ,    0.00000   ,   0.00000  ,    0.00000 ,     0.00000  ,   0.00000  ,    0.00000   ,   0.00000  ,    0.00000  ,  
0.00000 ,     0.00000  ,    0.00000  ,   0 / 

2684, 'GENSAL', 1,   6.00000,     0.350000E-01, 0.350000E-01,  10.00000,    3.00000,      1.40000,      1.00000,     0.210000,     0.180000,     0.120000,     0.170000,     0.550000     /
2684, 'ESST1A', 1,   1, 1, 0.0,  999.000,     -999.000,     0.510000,      2.01000,      0.00000,      0.00000,      178.900, 0.290000E-01,  999.000,     -999.000,      4.48000,     -1.79000,     0.110000,      0.00000,      1.00000,      0.00000,      2.80000 /
2684, 'WSIEG1', 1 ,      0, 0 ,  25.0000 ,     0.00000 ,     3.30000 ,    0.300000 ,    0.250000 ,    -3.30000  ,    1.01000 ,     0.00000 ,    0.861200E-01 , 1.00000, 